@<TRIPOS>MOLECULE
*****
878 1296 0 0 0
SMALL
NO_CHARGES

@<TRIPOS>ATOM
1	CG	0	0	0.682	CG	1	GPH	0
2	CHF	0.07	0.12	0.741	CHF	1	GPH	0
3	CG	0	0.241	0.682	CG	1	GPH	0
4	CG	0.07	0.361	0.682	CG	1	GPH	0
5	CG	0	0.482	0.682	CG	1	GPH	0
6	CG	0.07	0.602	0.682	CG	1	GPH	0
7	CG	0	0.722	0.682	CG	1	GPH	0
8	CG	0.07	0.843	0.682	CG	1	GPH	0
9	CG	0	0.963	0.682	CG	1	GPH	0
10	CG	0.07	1.083	0.682	CG	1	GPH	0
11	CG	0	1.204	0.682	CG	1	GPH	0
12	CG	0.07	1.324	0.682	CG	1	GPH	0
13	CG	0	1.445	0.682	CG	1	GPH	0
14	CG	0.07	1.565	0.682	CG	1	GPH	0
15	CG	0	1.685	0.682	CG	1	GPH	0
16	CG	0.07	1.806	0.682	CG	1	GPH	0
17	CG	0	1.926	0.682	CG	1	GPH	0
18	CG	0.07	2.046	0.682	CG	1	GPH	0
19	CG	0	2.167	0.682	CG	1	GPH	0
20	CG	0.07	2.287	0.682	CG	1	GPH	0
21	CG	0	2.408	0.682	CG	1	GPH	0
22	CG	0.07	2.528	0.682	CG	1	GPH	0
23	CG	0	2.648	0.682	CG	1	GPH	0
24	CG	0.07	2.769	0.682	CG	1	GPH	0
25	CG	0	2.889	0.682	CG	1	GPH	0
26	CG	0.07	3.009	0.682	CG	1	GPH	0
27	CHF	0	3.13	0.741	CHF	1	GPH	0
28	CG	0.07	3.25	0.682	CG	1	GPH	0
29	CG	0	3.371	0.682	CG	1	GPH	0
30	CG	0.07	3.491	0.682	CG	1	GPH	0
31	CG	0	3.611	0.682	CG	1	GPH	0
32	CG	0.07	3.732	0.682	CG	1	GPH	0
33	CG	0	3.852	0.682	CG	1	GPH	0
34	CG	0.07	3.972	0.682	CG	1	GPH	0
35	CG	0	4.093	0.682	CG	1	GPH	0
36	CG	0.07	4.213	0.682	CG	1	GPH	0
37	CG	0	4.334	0.682	CG	1	GPH	0
38	CG	0.07	4.454	0.682	CG	1	GPH	0
39	CG	0.278	0	0.682	CG	1	GPH	0
40	CG	0.209	0.12	0.682	CG	1	GPH	0
41	CG	0.278	0.241	0.682	CG	1	GPH	0
42	CG	0.209	0.361	0.682	CG	1	GPH	0
43	CG	0.278	0.482	0.682	CG	1	GPH	0
44	CG	0.209	0.602	0.682	CG	1	GPH	0
45	CG	0.278	0.722	0.682	CG	1	GPH	0
46	CG	0.209	0.843	0.682	CG	1	GPH	0
47	CG	0.278	0.963	0.682	CG	1	GPH	0
48	CG	0.209	1.083	0.682	CG	1	GPH	0
49	CG	0.278	1.204	0.682	CG	1	GPH	0
50	CG	0.209	1.324	0.682	CG	1	GPH	0
51	CHF	0.278	1.445	0.623	CHF	1	GPH	0
52	CG	0.209	1.565	0.682	CG	1	GPH	0
53	CG	0.278	1.685	0.682	CG	1	GPH	0
54	CG	0.209	1.806	0.682	CG	1	GPH	0
55	CG	0.278	1.926	0.682	CG	1	GPH	0
56	CG	0.209	2.046	0.682	CG	1	GPH	0
57	CG	0.278	2.167	0.682	CG	1	GPH	0
58	CG	0.209	2.287	0.682	CG	1	GPH	0
59	CG	0.278	2.408	0.682	CG	1	GPH	0
60	CG	0.209	2.528	0.682	CG	1	GPH	0
61	CG	0.278	2.648	0.682	CG	1	GPH	0
62	CHF	0.209	2.769	0.623	CHF	1	GPH	0
63	CG	0.278	2.889	0.682	CG	1	GPH	0
64	CG	0.209	3.009	0.682	CG	1	GPH	0
65	CG	0.278	3.13	0.682	CG	1	GPH	0
66	CG	0.209	3.25	0.682	CG	1	GPH	0
67	CG	0.278	3.371	0.682	CG	1	GPH	0
68	CG	0.209	3.491	0.682	CG	1	GPH	0
69	CG	0.278	3.611	0.682	CG	1	GPH	0
70	CG	0.209	3.732	0.682	CG	1	GPH	0
71	CG	0.278	3.852	0.682	CG	1	GPH	0
72	CG	0.209	3.972	0.682	CG	1	GPH	0
73	CG	0.278	4.093	0.682	CG	1	GPH	0
74	CG	0.209	4.213	0.682	CG	1	GPH	0
75	CG	0.278	4.334	0.682	CG	1	GPH	0
76	CG	0.209	4.454	0.682	CG	1	GPH	0
77	CG	0.417	0	0.682	CG	1	GPH	0
78	CG	0.487	0.12	0.682	CG	1	GPH	0
79	CG	0.417	0.241	0.682	CG	1	GPH	0
80	CG	0.487	0.361	0.682	CG	1	GPH	0
81	CG	0.417	0.482	0.682	CG	1	GPH	0
82	CG	0.487	0.602	0.682	CG	1	GPH	0
83	CG	0.417	0.722	0.682	CG	1	GPH	0
84	CG	0.487	0.843	0.682	CG	1	GPH	0
85	CG	0.417	0.963	0.682	CG	1	GPH	0
86	CG	0.487	1.083	0.682	CG	1	GPH	0
87	CHF	0.417	1.204	0.741	CHF	1	GPH	0
88	CG	0.487	1.324	0.682	CG	1	GPH	0
89	CG	0.417	1.445	0.682	CG	1	GPH	0
90	CG	0.487	1.565	0.682	CG	1	GPH	0
91	CG	0.417	1.685	0.682	CG	1	GPH	0
92	CG	0.487	1.806	0.682	CG	1	GPH	0
93	CG	0.417	1.926	0.682	CG	1	GPH	0
94	CG	0.487	2.046	0.682	CG	1	GPH	0
95	CG	0.417	2.167	0.682	CG	1	GPH	0
96	CG	0.487	2.287	0.682	CG	1	GPH	0
97	CG	0.417	2.408	0.682	CG	1	GPH	0
98	CG	0.487	2.528	0.682	CG	1	GPH	0
99	CG	0.417	2.648	0.682	CG	1	GPH	0
100	CG	0.487	2.769	0.682	CG	1	GPH	0
101	CG	0.417	2.889	0.682	CG	1	GPH	0
102	CG	0.487	3.009	0.682	CG	1	GPH	0
103	CG	0.417	3.13	0.682	CG	1	GPH	0
104	CG	0.487	3.25	0.682	CG	1	GPH	0
105	CG	0.417	3.371	0.682	CG	1	GPH	0
106	CG	0.487	3.491	0.682	CG	1	GPH	0
107	CG	0.417	3.611	0.682	CG	1	GPH	0
108	CG	0.487	3.732	0.682	CG	1	GPH	0
109	CG	0.417	3.852	0.682	CG	1	GPH	0
110	CG	0.487	3.972	0.682	CG	1	GPH	0
111	CHF	0.417	4.093	0.741	CHF	1	GPH	0
112	CG	0.487	4.213	0.682	CG	1	GPH	0
113	CG	0.417	4.334	0.682	CG	1	GPH	0
114	CG	0.487	4.454	0.682	CG	1	GPH	0
115	CG	0.695	0	0.682	CG	1	GPH	0
116	CG	0.626	0.12	0.682	CG	1	GPH	0
117	CG	0.695	0.241	0.682	CG	1	GPH	0
118	CG	0.626	0.361	0.682	CG	1	GPH	0
119	CG	0.695	0.482	0.682	CG	1	GPH	0
120	CG	0.626	0.602	0.682	CG	1	GPH	0
121	CG	0.695	0.722	0.682	CG	1	GPH	0
122	CHF	0.626	0.843	0.623	CHF	1	GPH	0
123	CG	0.695	0.963	0.682	CG	1	GPH	0
124	CG	0.626	1.083	0.682	CG	1	GPH	0
125	CG	0.695	1.204	0.682	CG	1	GPH	0
126	CG	0.626	1.324	0.682	CG	1	GPH	0
127	CG	0.695	1.445	0.682	CG	1	GPH	0
128	CG	0.626	1.565	0.682	CG	1	GPH	0
129	CG	0.695	1.685	0.682	CG	1	GPH	0
130	CG	0.626	1.806	0.682	CG	1	GPH	0
131	CG	0.695	1.926	0.682	CG	1	GPH	0
132	CG	0.626	2.046	0.682	CG	1	GPH	0
133	CG	0.695	2.167	0.682	CG	1	GPH	0
134	CG	0.626	2.287	0.682	CG	1	GPH	0
135	CG	0.695	2.408	0.682	CG	1	GPH	0
136	CG	0.626	2.528	0.682	CG	1	GPH	0
137	CG	0.695	2.648	0.682	CG	1	GPH	0
138	CG	0.626	2.769	0.682	CG	1	GPH	0
139	CG	0.695	2.889	0.682	CG	1	GPH	0
140	CG	0.626	3.009	0.682	CG	1	GPH	0
141	CG	0.695	3.13	0.682	CG	1	GPH	0
142	CG	0.626	3.25	0.682	CG	1	GPH	0
143	CG	0.695	3.371	0.682	CG	1	GPH	0
144	CG	0.626	3.491	0.682	CG	1	GPH	0
145	CG	0.695	3.611	0.682	CG	1	GPH	0
146	CG	0.626	3.732	0.682	CG	1	GPH	0
147	CHF	0.695	3.852	0.623	CHF	1	GPH	0
148	CG	0.626	3.972	0.682	CG	1	GPH	0
149	CG	0.695	4.093	0.682	CG	1	GPH	0
150	CG	0.626	4.213	0.682	CG	1	GPH	0
151	CG	0.695	4.334	0.682	CG	1	GPH	0
152	CG	0.626	4.454	0.682	CG	1	GPH	0
153	CG	0.834	0	0.682	CG	1	GPH	0
154	CG	0.904	0.12	0.682	CG	1	GPH	0
155	CG	0.834	0.241	0.682	CG	1	GPH	0
156	CG	0.904	0.361	0.682	CG	1	GPH	0
157	CG	0.834	0.482	0.682	CG	1	GPH	0
158	CG	0.904	0.602	0.682	CG	1	GPH	0
159	CG	0.834	0.722	0.682	CG	1	GPH	0
160	CG	0.904	0.843	0.682	CG	1	GPH	0
161	CG	0.834	0.963	0.682	CG	1	GPH	0
162	CG	0.904	1.083	0.682	CG	1	GPH	0
163	CG	0.834	1.204	0.682	CG	1	GPH	0
164	CG	0.904	1.324	0.682	CG	1	GPH	0
165	CG	0.834	1.445	0.682	CG	1	GPH	0
166	CG	0.904	1.565	0.682	CG	1	GPH	0
167	CG	0.834	1.685	0.682	CG	1	GPH	0
168	CG	0.904	1.806	0.682	CG	1	GPH	0
169	CG	0.834	1.926	0.682	CG	1	GPH	0
170	CG	0.904	2.046	0.682	CG	1	GPH	0
171	CHF	0.834	2.167	0.741	CHF	1	GPH	0
172	CG	0.904	2.287	0.682	CG	1	GPH	0
173	CG	0.834	2.408	0.682	CG	1	GPH	0
174	CG	0.904	2.528	0.682	CG	1	GPH	0
175	CG	0.834	2.648	0.682	CG	1	GPH	0
176	CG	0.904	2.769	0.682	CG	1	GPH	0
177	CG	0.834	2.889	0.682	CG	1	GPH	0
178	CG	0.904	3.009	0.682	CG	1	GPH	0
179	CG	0.834	3.13	0.682	CG	1	GPH	0
180	CG	0.904	3.25	0.682	CG	1	GPH	0
181	CG	0.834	3.371	0.682	CG	1	GPH	0
182	CHF	0.904	3.491	0.741	CHF	1	GPH	0
183	CG	0.834	3.611	0.682	CG	1	GPH	0
184	CG	0.904	3.732	0.682	CG	1	GPH	0
185	CG	0.834	3.852	0.682	CG	1	GPH	0
186	CG	0.904	3.972	0.682	CG	1	GPH	0
187	CG	0.834	4.093	0.682	CG	1	GPH	0
188	CG	0.904	4.213	0.682	CG	1	GPH	0
189	CG	0.834	4.334	0.682	CG	1	GPH	0
190	CG	0.904	4.454	0.682	CG	1	GPH	0
191	CG	1.112	0	0.682	CG	1	GPH	0
192	CG	1.042	0.12	0.682	CG	1	GPH	0
193	CG	1.112	0.241	0.682	CG	1	GPH	0
194	CG	1.042	0.361	0.682	CG	1	GPH	0
195	CG	1.112	0.482	0.682	CG	1	GPH	0
196	CG	1.042	0.602	0.682	CG	1	GPH	0
197	CG	1.112	0.722	0.682	CG	1	GPH	0
198	CG	1.042	0.843	0.682	CG	1	GPH	0
199	CG	1.112	0.963	0.682	CG	1	GPH	0
200	CG	1.042	1.083	0.682	CG	1	GPH	0
201	CG	1.112	1.204	0.682	CG	1	GPH	0
202	CG	1.042	1.324	0.682	CG	1	GPH	0
203	CG	1.112	1.445	0.682	CG	1	GPH	0
204	CG	1.042	1.565	0.682	CG	1	GPH	0
205	CG	1.112	1.685	0.682	CG	1	GPH	0
206	CG	1.042	1.806	0.682	CG	1	GPH	0
207	CHF	1.112	1.926	0.623	CHF	1	GPH	0
208	CG	1.042	2.046	0.682	CG	1	GPH	0
209	CG	1.112	2.167	0.682	CG	1	GPH	0
210	CG	1.042	2.287	0.682	CG	1	GPH	0
211	CG	1.112	2.408	0.682	CG	1	GPH	0
212	CG	1.042	2.528	0.682	CG	1	GPH	0
213	CG	1.112	2.648	0.682	CG	1	GPH	0
214	CG	1.042	2.769	0.682	CG	1	GPH	0
215	CG	1.112	2.889	0.682	CG	1	GPH	0
216	CG	1.042	3.009	0.682	CG	1	GPH	0
217	CG	1.112	3.13	0.682	CG	1	GPH	0
218	CG	1.042	3.25	0.682	CG	1	GPH	0
219	CG	1.112	3.371	0.682	CG	1	GPH	0
220	CG	1.042	3.491	0.682	CG	1	GPH	0
221	CG	1.112	3.611	0.682	CG	1	GPH	0
222	CG	1.042	3.732	0.682	CG	1	GPH	0
223	CG	1.112	3.852	0.682	CG	1	GPH	0
224	CG	1.042	3.972	0.682	CG	1	GPH	0
225	CG	1.112	4.093	0.682	CG	1	GPH	0
226	CG	1.042	4.213	0.682	CG	1	GPH	0
227	CG	1.112	4.334	0.682	CG	1	GPH	0
228	CG	1.042	4.454	0.682	CG	1	GPH	0
229	CG	1.251	0	0.682	CG	1	GPH	0
230	CG	1.321	0.12	0.682	CG	1	GPH	0
231	CHF	1.251	0.241	0.623	CHF	1	GPH	0
232	CG	1.321	0.361	0.682	CG	1	GPH	0
233	CG	1.251	0.482	0.682	CG	1	GPH	0
234	CG	1.321	0.602	0.682	CG	1	GPH	0
235	CG	1.251	0.722	0.682	CG	1	GPH	0
236	CG	1.321	0.843	0.682	CG	1	GPH	0
237	CG	1.251	0.963	0.682	CG	1	GPH	0
238	CG	1.321	1.083	0.682	CG	1	GPH	0
239	CG	1.251	1.204	0.682	CG	1	GPH	0
240	CG	1.321	1.324	0.682	CG	1	GPH	0
241	CG	1.251	1.445	0.682	CG	1	GPH	0
242	CHF	1.321	1.565	0.741	CHF	1	GPH	0
243	CG	1.251	1.685	0.682	CG	1	GPH	0
244	CG	1.321	1.806	0.682	CG	1	GPH	0
245	CG	1.251	1.926	0.682	CG	1	GPH	0
246	CG	1.321	2.046	0.682	CG	1	GPH	0
247	CG	1.251	2.167	0.682	CG	1	GPH	0
248	CG	1.321	2.287	0.682	CG	1	GPH	0
249	CG	1.251	2.408	0.682	CG	1	GPH	0
250	CG	1.321	2.528	0.682	CG	1	GPH	0
251	CG	1.251	2.648	0.682	CG	1	GPH	0
252	CG	1.321	2.769	0.682	CG	1	GPH	0
253	CG	1.251	2.889	0.682	CG	1	GPH	0
254	CG	1.321	3.009	0.682	CG	1	GPH	0
255	CG	1.251	3.13	0.682	CG	1	GPH	0
256	CG	1.321	3.25	0.682	CG	1	GPH	0
257	CG	1.251	3.371	0.682	CG	1	GPH	0
258	CG	1.321	3.491	0.682	CG	1	GPH	0
259	CG	1.251	3.611	0.682	CG	1	GPH	0
260	CG	1.321	3.732	0.682	CG	1	GPH	0
261	CG	1.251	3.852	0.682	CG	1	GPH	0
262	CG	1.321	3.972	0.682	CG	1	GPH	0
263	CG	1.251	4.093	0.682	CG	1	GPH	0
264	CG	1.321	4.213	0.682	CG	1	GPH	0
265	CG	1.251	4.334	0.682	CG	1	GPH	0
266	CG	1.321	4.454	0.682	CG	1	GPH	0
267	CHF	1.529	0	0.741	CHF	1	GPH	0
268	CG	1.46	0.12	0.682	CG	1	GPH	0
269	CG	1.529	0.241	0.682	CG	1	GPH	0
270	CG	1.46	0.361	0.682	CG	1	GPH	0
271	CG	1.529	0.482	0.682	CG	1	GPH	0
272	CG	1.46	0.602	0.682	CG	1	GPH	0
273	CG	1.529	0.722	0.682	CG	1	GPH	0
274	CG	1.46	0.843	0.682	CG	1	GPH	0
275	CG	1.529	0.963	0.682	CG	1	GPH	0
276	CG	1.46	1.083	0.682	CG	1	GPH	0
277	CG	1.529	1.204	0.682	CG	1	GPH	0
278	CG	1.46	1.324	0.682	CG	1	GPH	0
279	CG	1.529	1.445	0.682	CG	1	GPH	0
280	CG	1.46	1.565	0.682	CG	1	GPH	0
281	CG	1.529	1.685	0.682	CG	1	GPH	0
282	CG	1.46	1.806	0.682	CG	1	GPH	0
283	CG	1.529	1.926	0.682	CG	1	GPH	0
284	CG	1.46	2.046	0.682	CG	1	GPH	0
285	CG	1.529	2.167	0.682	CG	1	GPH	0
286	CG	1.46	2.287	0.682	CG	1	GPH	0
287	CG	1.529	2.408	0.682	CG	1	GPH	0
288	CG	1.46	2.528	0.682	CG	1	GPH	0
289	CG	1.529	2.648	0.682	CG	1	GPH	0
290	CG	1.46	2.769	0.682	CG	1	GPH	0
291	CHF	1.529	2.889	0.623	CHF	1	GPH	0
292	CG	1.46	3.009	0.682	CG	1	GPH	0
293	CG	1.529	3.13	0.682	CG	1	GPH	0
294	CG	1.46	3.25	0.682	CG	1	GPH	0
295	CG	1.529	3.371	0.682	CG	1	GPH	0
296	CG	1.46	3.491	0.682	CG	1	GPH	0
297	CG	1.529	3.611	0.682	CG	1	GPH	0
298	CG	1.46	3.732	0.682	CG	1	GPH	0
299	CG	1.529	3.852	0.682	CG	1	GPH	0
300	CG	1.46	3.972	0.682	CG	1	GPH	0
301	CG	1.529	4.093	0.682	CG	1	GPH	0
302	CHF	1.46	4.213	0.623	CHF	1	GPH	0
303	CG	1.529	4.334	0.682	CG	1	GPH	0
304	CG	1.46	4.454	0.682	CG	1	GPH	0
305	CG	1.668	0	0.682	CG	1	GPH	0
306	CG	1.738	0.12	0.682	CG	1	GPH	0
307	CG	1.668	0.241	0.682	CG	1	GPH	0
308	CG	1.738	0.361	0.682	CG	1	GPH	0
309	CG	1.668	0.482	0.682	CG	1	GPH	0
310	CG	1.738	0.602	0.682	CG	1	GPH	0
311	CG	1.668	0.722	0.682	CG	1	GPH	0
312	CG	1.738	0.843	0.682	CG	1	GPH	0
313	CG	1.668	0.963	0.682	CG	1	GPH	0
314	CG	1.738	1.083	0.682	CG	1	GPH	0
315	CG	1.668	1.204	0.682	CG	1	GPH	0
316	CG	1.738	1.324	0.682	CG	1	GPH	0
317	CG	1.668	1.445	0.682	CG	1	GPH	0
318	CG	1.738	1.565	0.682	CG	1	GPH	0
319	CG	1.668	1.685	0.682	CG	1	GPH	0
320	CG	1.738	1.806	0.682	CG	1	GPH	0
321	CG	1.668	1.926	0.682	CG	1	GPH	0
322	CG	1.738	2.046	0.682	CG	1	GPH	0
323	CG	1.668	2.167	0.682	CG	1	GPH	0
324	CG	1.738	2.287	0.682	CG	1	GPH	0
325	CG	1.668	2.408	0.682	CG	1	GPH	0
326	CG	1.738	2.528	0.682	CG	1	GPH	0
327	CHF	1.668	2.648	0.741	CHF	1	GPH	0
328	CG	1.738	2.769	0.682	CG	1	GPH	0
329	CG	1.668	2.889	0.682	CG	1	GPH	0
330	CG	1.738	3.009	0.682	CG	1	GPH	0
331	CG	1.668	3.13	0.682	CG	1	GPH	0
332	CG	1.738	3.25	0.682	CG	1	GPH	0
333	CG	1.668	3.371	0.682	CG	1	GPH	0
334	CG	1.738	3.491	0.682	CG	1	GPH	0
335	CG	1.668	3.611	0.682	CG	1	GPH	0
336	CG	1.738	3.732	0.682	CG	1	GPH	0
337	CG	1.668	3.852	0.682	CG	1	GPH	0
338	CG	1.738	3.972	0.682	CG	1	GPH	0
339	CG	1.668	4.093	0.682	CG	1	GPH	0
340	CG	1.738	4.213	0.682	CG	1	GPH	0
341	CG	1.668	4.334	0.682	CG	1	GPH	0
342	CG	1.738	4.454	0.682	CG	1	GPH	0
343	CG	1.946	0	0.682	CG	1	GPH	0
344	CG	1.877	0.12	0.682	CG	1	GPH	0
345	CG	1.946	0.241	0.682	CG	1	GPH	0
346	CG	1.877	0.361	0.682	CG	1	GPH	0
347	CG	1.946	0.482	0.682	CG	1	GPH	0
348	CG	1.877	0.602	0.682	CG	1	GPH	0
349	CG	1.946	0.722	0.682	CG	1	GPH	0
350	CG	1.877	0.843	0.682	CG	1	GPH	0
351	CHF	1.946	0.963	0.741	CHF	1	GPH	0
352	CG	1.877	1.083	0.682	CG	1	GPH	0
353	CG	1.946	1.204	0.682	CG	1	GPH	0
354	CG	1.877	1.324	0.682	CG	1	GPH	0
355	CG	1.946	1.445	0.682	CG	1	GPH	0
356	CG	1.877	1.565	0.682	CG	1	GPH	0
357	CG	1.946	1.685	0.682	CG	1	GPH	0
358	CG	1.877	1.806	0.682	CG	1	GPH	0
359	CG	1.946	1.926	0.682	CG	1	GPH	0
360	CG	1.877	2.046	0.682	CG	1	GPH	0
361	CG	1.946	2.167	0.682	CG	1	GPH	0
362	CHF	1.877	2.287	0.623	CHF	1	GPH	0
363	CG	1.946	2.408	0.682	CG	1	GPH	0
364	CG	1.877	2.528	0.682	CG	1	GPH	0
365	CG	1.946	2.648	0.682	CG	1	GPH	0
366	CG	1.877	2.769	0.682	CG	1	GPH	0
367	CG	1.946	2.889	0.682	CG	1	GPH	0
368	CG	1.877	3.009	0.682	CG	1	GPH	0
369	CG	1.946	3.13	0.682	CG	1	GPH	0
370	CG	1.877	3.25	0.682	CG	1	GPH	0
371	CG	1.946	3.371	0.682	CG	1	GPH	0
372	CG	1.877	3.491	0.682	CG	1	GPH	0
373	CG	1.946	3.611	0.682	CG	1	GPH	0
374	CG	1.877	3.732	0.682	CG	1	GPH	0
375	CG	1.946	3.852	0.682	CG	1	GPH	0
376	CG	1.877	3.972	0.682	CG	1	GPH	0
377	CG	1.946	4.093	0.682	CG	1	GPH	0
378	CG	1.877	4.213	0.682	CG	1	GPH	0
379	CG	1.946	4.334	0.682	CG	1	GPH	0
380	CG	1.877	4.454	0.682	CG	1	GPH	0
381	CG	2.085	0	0.682	CG	1	GPH	0
382	CG	2.155	0.12	0.682	CG	1	GPH	0
383	CG	2.085	0.241	0.682	CG	1	GPH	0
384	CG	2.155	0.361	0.682	CG	1	GPH	0
385	CG	2.085	0.482	0.682	CG	1	GPH	0
386	CG	2.155	0.602	0.682	CG	1	GPH	0
387	CHF	2.085	0.722	0.623	CHF	1	GPH	0
388	CG	2.155	0.843	0.682	CG	1	GPH	0
389	CG	2.085	0.963	0.682	CG	1	GPH	0
390	CG	2.155	1.083	0.682	CG	1	GPH	0
391	CG	2.085	1.204	0.682	CG	1	GPH	0
392	CG	2.155	1.324	0.682	CG	1	GPH	0
393	CG	2.085	1.445	0.682	CG	1	GPH	0
394	CG	2.155	1.565	0.682	CG	1	GPH	0
395	CG	2.085	1.685	0.682	CG	1	GPH	0
396	CG	2.155	1.806	0.682	CG	1	GPH	0
397	CG	2.085	1.926	0.682	CG	1	GPH	0
398	CG	2.155	2.046	0.682	CG	1	GPH	0
399	CG	2.085	2.167	0.682	CG	1	GPH	0
400	CG	2.155	2.287	0.682	CG	1	GPH	0
401	CG	2.085	2.408	0.682	CG	1	GPH	0
402	CG	2.155	2.528	0.682	CG	1	GPH	0
403	CG	2.085	2.648	0.682	CG	1	GPH	0
404	CG	2.155	2.769	0.682	CG	1	GPH	0
405	CG	2.085	2.889	0.682	CG	1	GPH	0
406	CG	2.155	3.009	0.682	CG	1	GPH	0
407	CG	2.085	3.13	0.682	CG	1	GPH	0
408	CG	2.155	3.25	0.682	CG	1	GPH	0
409	CG	2.085	3.371	0.682	CG	1	GPH	0
410	CG	2.155	3.491	0.682	CG	1	GPH	0
411	CHF	2.085	3.611	0.741	CHF	1	GPH	0
412	CG	2.155	3.732	0.682	CG	1	GPH	0
413	CG	2.085	3.852	0.682	CG	1	GPH	0
414	CG	2.155	3.972	0.682	CG	1	GPH	0
415	CG	2.085	4.093	0.682	CG	1	GPH	0
416	CG	2.155	4.213	0.682	CG	1	GPH	0
417	CG	2.085	4.334	0.682	CG	1	GPH	0
418	CG	2.155	4.454	0.682	CG	1	GPH	0
419	CG	2.363	0	0.682	CG	1	GPH	0
420	CG	2.294	0.12	0.682	CG	1	GPH	0
421	CG	2.363	0.241	0.682	CG	1	GPH	0
422	CHF	2.294	0.361	0.741	CHF	1	GPH	0
423	CG	2.363	0.482	0.682	CG	1	GPH	0
424	CG	2.294	0.602	0.682	CG	1	GPH	0
425	CG	2.363	0.722	0.682	CG	1	GPH	0
426	CG	2.294	0.843	0.682	CG	1	GPH	0
427	CG	2.363	0.963	0.682	CG	1	GPH	0
428	CG	2.294	1.083	0.682	CG	1	GPH	0
429	CG	2.363	1.204	0.682	CG	1	GPH	0
430	CG	2.294	1.324	0.682	CG	1	GPH	0
431	CG	2.363	1.445	0.682	CG	1	GPH	0
432	CG	2.294	1.565	0.682	CG	1	GPH	0
433	CG	2.363	1.685	0.682	CG	1	GPH	0
434	CG	2.294	1.806	0.682	CG	1	GPH	0
435	CG	2.363	1.926	0.682	CG	1	GPH	0
436	CG	2.294	2.046	0.682	CG	1	GPH	0
437	CG	2.363	2.167	0.682	CG	1	GPH	0
438	CG	2.294	2.287	0.682	CG	1	GPH	0
439	CG	2.363	2.408	0.682	CG	1	GPH	0
440	CG	2.294	2.528	0.682	CG	1	GPH	0
441	CG	2.363	2.648	0.682	CG	1	GPH	0
442	CG	2.294	2.769	0.682	CG	1	GPH	0
443	CG	2.363	2.889	0.682	CG	1	GPH	0
444	CG	2.294	3.009	0.682	CG	1	GPH	0
445	CG	2.363	3.13	0.682	CG	1	GPH	0
446	CG	2.294	3.25	0.682	CG	1	GPH	0
447	CHF	2.363	3.371	0.623	CHF	1	GPH	0
448	CG	2.294	3.491	0.682	CG	1	GPH	0
449	CG	2.363	3.611	0.682	CG	1	GPH	0
450	CG	2.294	3.732	0.682	CG	1	GPH	0
451	CG	2.363	3.852	0.682	CG	1	GPH	0
452	CG	2.294	3.972	0.682	CG	1	GPH	0
453	CG	2.363	4.093	0.682	CG	1	GPH	0
454	CG	2.294	4.213	0.682	CG	1	GPH	0
455	CG	2.363	4.334	0.682	CG	1	GPH	0
456	CG	2.294	4.454	0.682	CG	1	GPH	0
457	CG	2.502	0	0.682	CG	1	GPH	0
458	CG	2.572	0.12	0.682	CG	1	GPH	0
459	CG	2.502	0.241	0.682	CG	1	GPH	0
460	CG	2.572	0.361	0.682	CG	1	GPH	0
461	CG	2.502	0.482	0.682	CG	1	GPH	0
462	CG	2.572	0.602	0.682	CG	1	GPH	0
463	CG	2.502	0.722	0.682	CG	1	GPH	0
464	CG	2.572	0.843	0.682	CG	1	GPH	0
465	CG	2.502	0.963	0.682	CG	1	GPH	0
466	CG	2.572	1.083	0.682	CG	1	GPH	0
467	CG	2.502	1.204	0.682	CG	1	GPH	0
468	CG	2.572	1.324	0.682	CG	1	GPH	0
469	CG	2.502	1.445	0.682	CG	1	GPH	0
470	CG	2.572	1.565	0.682	CG	1	GPH	0
471	CHF	2.502	1.685	0.623	CHF	1	GPH	0
472	CG	2.572	1.806	0.682	CG	1	GPH	0
473	CG	2.502	1.926	0.682	CG	1	GPH	0
474	CG	2.572	2.046	0.682	CG	1	GPH	0
475	CG	2.502	2.167	0.682	CG	1	GPH	0
476	CG	2.572	2.287	0.682	CG	1	GPH	0
477	CG	2.502	2.408	0.682	CG	1	GPH	0
478	CG	2.572	2.528	0.682	CG	1	GPH	0
479	CG	2.502	2.648	0.682	CG	1	GPH	0
480	CG	2.572	2.769	0.682	CG	1	GPH	0
481	CG	2.502	2.889	0.682	CG	1	GPH	0
482	CHF	2.572	3.009	0.741	CHF	1	GPH	0
483	CG	2.502	3.13	0.682	CG	1	GPH	0
484	CG	2.572	3.25	0.682	CG	1	GPH	0
485	CG	2.502	3.371	0.682	CG	1	GPH	0
486	CG	2.572	3.491	0.682	CG	1	GPH	0
487	CG	2.502	3.611	0.682	CG	1	GPH	0
488	CG	2.572	3.732	0.682	CG	1	GPH	0
489	CG	2.502	3.852	0.682	CG	1	GPH	0
490	CG	2.572	3.972	0.682	CG	1	GPH	0
491	CG	2.502	4.093	0.682	CG	1	GPH	0
492	CG	2.572	4.213	0.682	CG	1	GPH	0
493	CG	2.502	4.334	0.682	CG	1	GPH	0
494	CG	2.572	4.454	0.682	CG	1	GPH	0
495	CG	2.78	0	0.682	CG	1	GPH	0
496	CG	2.711	0.12	0.682	CG	1	GPH	0
497	CG	2.78	0.241	0.682	CG	1	GPH	0
498	CG	2.711	0.361	0.682	CG	1	GPH	0
499	CG	2.78	0.482	0.682	CG	1	GPH	0
500	CG	2.711	0.602	0.682	CG	1	GPH	0
501	CG	2.78	0.722	0.682	CG	1	GPH	0
502	CG	2.711	0.843	0.682	CG	1	GPH	0
503	CG	2.78	0.963	0.682	CG	1	GPH	0
504	CG	2.711	1.083	0.682	CG	1	GPH	0
505	CG	2.78	1.204	0.682	CG	1	GPH	0
506	CG	2.711	1.324	0.682	CG	1	GPH	0
507	CHF	2.78	1.445	0.741	CHF	1	GPH	0
508	CG	2.711	1.565	0.682	CG	1	GPH	0
509	CG	2.78	1.685	0.682	CG	1	GPH	0
510	CG	2.711	1.806	0.682	CG	1	GPH	0
511	CG	2.78	1.926	0.682	CG	1	GPH	0
512	CG	2.711	2.046	0.682	CG	1	GPH	0
513	CG	2.78	2.167	0.682	CG	1	GPH	0
514	CG	2.711	2.287	0.682	CG	1	GPH	0
515	CG	2.78	2.408	0.682	CG	1	GPH	0
516	CG	2.711	2.528	0.682	CG	1	GPH	0
517	CG	2.78	2.648	0.682	CG	1	GPH	0
518	CG	2.711	2.769	0.682	CG	1	GPH	0
519	CG	2.78	2.889	0.682	CG	1	GPH	0
520	CG	2.711	3.009	0.682	CG	1	GPH	0
521	CG	2.78	3.13	0.682	CG	1	GPH	0
522	CG	2.711	3.25	0.682	CG	1	GPH	0
523	CG	2.78	3.371	0.682	CG	1	GPH	0
524	CG	2.711	3.491	0.682	CG	1	GPH	0
525	CG	2.78	3.611	0.682	CG	1	GPH	0
526	CG	2.711	3.732	0.682	CG	1	GPH	0
527	CG	2.78	3.852	0.682	CG	1	GPH	0
528	CG	2.711	3.972	0.682	CG	1	GPH	0
529	CG	2.78	4.093	0.682	CG	1	GPH	0
530	CG	2.711	4.213	0.682	CG	1	GPH	0
531	CHF	2.78	4.334	0.623	CHF	1	GPH	0
532	CG	2.711	4.454	0.682	CG	1	GPH	0
533	CG	2.919	0	0.682	CG	1	GPH	0
534	CG	2.989	0.12	0.682	CG	1	GPH	0
535	CG	2.919	0.241	0.682	CG	1	GPH	0
536	CG	2.989	0.361	0.682	CG	1	GPH	0
537	CG	2.919	0.482	0.682	CG	1	GPH	0
538	CG	2.989	0.602	0.682	CG	1	GPH	0
539	CG	2.919	0.722	0.682	CG	1	GPH	0
540	CG	2.989	0.843	0.682	CG	1	GPH	0
541	CG	2.919	0.963	0.682	CG	1	GPH	0
542	CHF	2.989	1.083	0.623	CHF	1	GPH	0
543	CG	2.919	1.204	0.682	CG	1	GPH	0
544	CG	2.989	1.324	0.682	CG	1	GPH	0
545	CG	2.919	1.445	0.682	CG	1	GPH	0
546	CG	2.989	1.565	0.682	CG	1	GPH	0
547	CG	2.919	1.685	0.682	CG	1	GPH	0
548	CG	2.989	1.806	0.682	CG	1	GPH	0
549	CG	2.919	1.926	0.682	CG	1	GPH	0
550	CG	2.989	2.046	0.682	CG	1	GPH	0
551	CG	2.919	2.167	0.682	CG	1	GPH	0
552	CG	2.989	2.287	0.682	CG	1	GPH	0
553	CG	2.919	2.408	0.682	CG	1	GPH	0
554	CG	2.989	2.528	0.682	CG	1	GPH	0
555	CG	2.919	2.648	0.682	CG	1	GPH	0
556	CG	2.989	2.769	0.682	CG	1	GPH	0
557	CG	2.919	2.889	0.682	CG	1	GPH	0
558	CG	2.989	3.009	0.682	CG	1	GPH	0
559	CG	2.919	3.13	0.682	CG	1	GPH	0
560	CG	2.989	3.25	0.682	CG	1	GPH	0
561	CG	2.919	3.371	0.682	CG	1	GPH	0
562	CG	2.989	3.491	0.682	CG	1	GPH	0
563	CG	2.919	3.611	0.682	CG	1	GPH	0
564	CG	2.989	3.732	0.682	CG	1	GPH	0
565	CG	2.919	3.852	0.682	CG	1	GPH	0
566	CG	2.989	3.972	0.682	CG	1	GPH	0
567	CHF	2.919	4.093	0.741	CHF	1	GPH	0
568	CG	2.989	4.213	0.682	CG	1	GPH	0
569	CG	2.919	4.334	0.682	CG	1	GPH	0
570	CG	2.989	4.454	0.682	CG	1	GPH	0
571	CG	3.197	0	0.682	CG	1	GPH	0
572	CG	3.128	0.12	0.682	CG	1	GPH	0
573	CG	3.197	0.241	0.682	CG	1	GPH	0
574	CG	3.128	0.361	0.682	CG	1	GPH	0
575	CG	3.197	0.482	0.682	CG	1	GPH	0
576	CG	3.128	0.602	0.682	CG	1	GPH	0
577	CG	3.197	0.722	0.682	CG	1	GPH	0
578	CG	3.128	0.843	0.682	CG	1	GPH	0
579	CG	3.197	0.963	0.682	CG	1	GPH	0
580	CG	3.128	1.083	0.682	CG	1	GPH	0
581	CG	3.197	1.204	0.682	CG	1	GPH	0
582	CG	3.128	1.324	0.682	CG	1	GPH	0
583	CG	3.197	1.445	0.682	CG	1	GPH	0
584	CG	3.128	1.565	0.682	CG	1	GPH	0
585	CG	3.197	1.685	0.682	CG	1	GPH	0
586	CG	3.128	1.806	0.682	CG	1	GPH	0
587	CG	3.197	1.926	0.682	CG	1	GPH	0
588	CG	3.128	2.046	0.682	CG	1	GPH	0
589	CG	3.197	2.167	0.682	CG	1	GPH	0
590	CG	3.128	2.287	0.682	CG	1	GPH	0
591	CHF	3.197	2.408	0.741	CHF	1	GPH	0
592	CG	3.128	2.528	0.682	CG	1	GPH	0
593	CG	3.197	2.648	0.682	CG	1	GPH	0
594	CG	3.128	2.769	0.682	CG	1	GPH	0
595	CG	3.197	2.889	0.682	CG	1	GPH	0
596	CG	3.128	3.009	0.682	CG	1	GPH	0
597	CG	3.197	3.13	0.682	CG	1	GPH	0
598	CG	3.128	3.25	0.682	CG	1	GPH	0
599	CG	3.197	3.371	0.682	CG	1	GPH	0
600	CG	3.128	3.491	0.682	CG	1	GPH	0
601	CG	3.197	3.611	0.682	CG	1	GPH	0
602	CHF	3.128	3.732	0.623	CHF	1	GPH	0
603	CG	3.197	3.852	0.682	CG	1	GPH	0
604	CG	3.128	3.972	0.682	CG	1	GPH	0
605	CG	3.197	4.093	0.682	CG	1	GPH	0
606	CG	3.128	4.213	0.682	CG	1	GPH	0
607	CG	3.197	4.334	0.682	CG	1	GPH	0
608	CG	3.128	4.454	0.682	CG	1	GPH	0
609	CG	3.336	0	0.682	CG	1	GPH	0
610	CG	3.406	0.12	0.682	CG	1	GPH	0
611	CG	3.336	0.241	0.682	CG	1	GPH	0
612	CG	3.406	0.361	0.682	CG	1	GPH	0
613	CG	3.336	0.482	0.682	CG	1	GPH	0
614	CG	3.406	0.602	0.682	CG	1	GPH	0
615	CG	3.336	0.722	0.682	CG	1	GPH	0
616	CG	3.406	0.843	0.682	CG	1	GPH	0
617	CG	3.336	0.963	0.682	CG	1	GPH	0
618	CG	3.406	1.083	0.682	CG	1	GPH	0
619	CG	3.336	1.204	0.682	CG	1	GPH	0
620	CG	3.406	1.324	0.682	CG	1	GPH	0
621	CG	3.336	1.445	0.682	CG	1	GPH	0
622	CG	3.406	1.565	0.682	CG	1	GPH	0
623	CG	3.336	1.685	0.682	CG	1	GPH	0
624	CG	3.406	1.806	0.682	CG	1	GPH	0
625	CG	3.336	1.926	0.682	CG	1	GPH	0
626	CG	3.406	2.046	0.682	CG	1	GPH	0
627	CHF	3.336	2.167	0.623	CHF	1	GPH	0
628	CG	3.406	2.287	0.682	CG	1	GPH	0
629	CG	3.336	2.408	0.682	CG	1	GPH	0
630	CG	3.406	2.528	0.682	CG	1	GPH	0
631	CG	3.336	2.648	0.682	CG	1	GPH	0
632	CG	3.406	2.769	0.682	CG	1	GPH	0
633	CG	3.336	2.889	0.682	CG	1	GPH	0
634	CG	3.406	3.009	0.682	CG	1	GPH	0
635	CG	3.336	3.13	0.682	CG	1	GPH	0
636	CG	3.406	3.25	0.682	CG	1	GPH	0
637	CG	3.336	3.371	0.682	CG	1	GPH	0
638	CG	3.406	3.491	0.682	CG	1	GPH	0
639	CG	3.336	3.611	0.682	CG	1	GPH	0
640	CG	3.406	3.732	0.682	CG	1	GPH	0
641	CG	3.336	3.852	0.682	CG	1	GPH	0
642	CG	3.406	3.972	0.682	CG	1	GPH	0
643	CG	3.336	4.093	0.682	CG	1	GPH	0
644	CG	3.406	4.213	0.682	CG	1	GPH	0
645	CG	3.336	4.334	0.682	CG	1	GPH	0
646	CG	3.406	4.454	0.682	CG	1	GPH	0
647	CG	3.614	0	0.682	CG	1	GPH	0
648	CG	3.545	0.12	0.682	CG	1	GPH	0
649	CG	3.614	0.241	0.682	CG	1	GPH	0
650	CG	3.545	0.361	0.682	CG	1	GPH	0
651	CHF	3.614	0.482	0.741	CHF	1	GPH	0
652	CG	3.545	0.602	0.682	CG	1	GPH	0
653	CG	3.614	0.722	0.682	CG	1	GPH	0
654	CG	3.545	0.843	0.682	CG	1	GPH	0
655	CG	3.614	0.963	0.682	CG	1	GPH	0
656	CG	3.545	1.083	0.682	CG	1	GPH	0
657	CG	3.614	1.204	0.682	CG	1	GPH	0
658	CG	3.545	1.324	0.682	CG	1	GPH	0
659	CG	3.614	1.445	0.682	CG	1	GPH	0
660	CG	3.545	1.565	0.682	CG	1	GPH	0
661	CG	3.614	1.685	0.682	CG	1	GPH	0
662	CHF	3.545	1.806	0.741	CHF	1	GPH	0
663	CG	3.614	1.926	0.682	CG	1	GPH	0
664	CG	3.545	2.046	0.682	CG	1	GPH	0
665	CG	3.614	2.167	0.682	CG	1	GPH	0
666	CG	3.545	2.287	0.682	CG	1	GPH	0
667	CG	3.614	2.408	0.682	CG	1	GPH	0
668	CG	3.545	2.528	0.682	CG	1	GPH	0
669	CG	3.614	2.648	0.682	CG	1	GPH	0
670	CG	3.545	2.769	0.682	CG	1	GPH	0
671	CG	3.614	2.889	0.682	CG	1	GPH	0
672	CG	3.545	3.009	0.682	CG	1	GPH	0
673	CG	3.614	3.13	0.682	CG	1	GPH	0
674	CG	3.545	3.25	0.682	CG	1	GPH	0
675	CG	3.614	3.371	0.682	CG	1	GPH	0
676	CG	3.545	3.491	0.682	CG	1	GPH	0
677	CG	3.614	3.611	0.682	CG	1	GPH	0
678	CG	3.545	3.732	0.682	CG	1	GPH	0
679	CG	3.614	3.852	0.682	CG	1	GPH	0
680	CG	3.545	3.972	0.682	CG	1	GPH	0
681	CG	3.614	4.093	0.682	CG	1	GPH	0
682	CG	3.545	4.213	0.682	CG	1	GPH	0
683	CG	3.614	4.334	0.682	CG	1	GPH	0
684	CG	3.545	4.454	0.682	CG	1	GPH	0
685	CG	3.753	0	0.682	CG	1	GPH	0
686	CG	3.823	0.12	0.682	CG	1	GPH	0
687	CHF	3.753	0.241	0.623	CHF	1	GPH	0
688	CG	3.823	0.361	0.682	CG	1	GPH	0
689	CG	3.753	0.482	0.682	CG	1	GPH	0
690	CG	3.823	0.602	0.682	CG	1	GPH	0
691	CG	3.753	0.722	0.682	CG	1	GPH	0
692	CG	3.823	0.843	0.682	CG	1	GPH	0
693	CG	3.753	0.963	0.682	CG	1	GPH	0
694	CG	3.823	1.083	0.682	CG	1	GPH	0
695	CG	3.753	1.204	0.682	CG	1	GPH	0
696	CG	3.823	1.324	0.682	CG	1	GPH	0
697	CG	3.753	1.445	0.682	CG	1	GPH	0
698	CG	3.823	1.565	0.682	CG	1	GPH	0
699	CG	3.753	1.685	0.682	CG	1	GPH	0
700	CG	3.823	1.806	0.682	CG	1	GPH	0
701	CG	3.753	1.926	0.682	CG	1	GPH	0
702	CG	3.823	2.046	0.682	CG	1	GPH	0
703	CG	3.753	2.167	0.682	CG	1	GPH	0
704	CG	3.823	2.287	0.682	CG	1	GPH	0
705	CG	3.753	2.408	0.682	CG	1	GPH	0
706	CG	3.823	2.528	0.682	CG	1	GPH	0
707	CG	3.753	2.648	0.682	CG	1	GPH	0
708	CG	3.823	2.769	0.682	CG	1	GPH	0
709	CG	3.753	2.889	0.682	CG	1	GPH	0
710	CG	3.823	3.009	0.682	CG	1	GPH	0
711	CHF	3.753	3.13	0.623	CHF	1	GPH	0
712	CG	3.823	3.25	0.682	CG	1	GPH	0
713	CG	3.753	3.371	0.682	CG	1	GPH	0
714	CG	3.823	3.491	0.682	CG	1	GPH	0
715	CG	3.753	3.611	0.682	CG	1	GPH	0
716	CG	3.823	3.732	0.682	CG	1	GPH	0
717	CG	3.753	3.852	0.682	CG	1	GPH	0
718	CG	3.823	3.972	0.682	CG	1	GPH	0
719	CG	3.753	4.093	0.682	CG	1	GPH	0
720	CG	3.823	4.213	0.682	CG	1	GPH	0
721	CG	3.753	4.334	0.682	CG	1	GPH	0
722	CHF	3.823	4.454	0.741	CHF	1	GPH	0
723	CG	4.031	0	0.682	CG	1	GPH	0
724	CG	3.962	0.12	0.682	CG	1	GPH	0
725	CG	4.031	0.241	0.682	CG	1	GPH	0
726	CG	3.962	0.361	0.682	CG	1	GPH	0
727	CG	4.031	0.482	0.682	CG	1	GPH	0
728	CG	3.962	0.602	0.682	CG	1	GPH	0
729	CG	4.031	0.722	0.682	CG	1	GPH	0
730	CG	3.962	0.843	0.682	CG	1	GPH	0
731	CG	4.031	0.963	0.682	CG	1	GPH	0
732	CG	3.962	1.083	0.682	CG	1	GPH	0
733	CG	4.031	1.204	0.682	CG	1	GPH	0
734	CG	3.962	1.324	0.682	CG	1	GPH	0
735	CG	4.031	1.445	0.682	CG	1	GPH	0
736	CG	3.962	1.565	0.682	CG	1	GPH	0
737	CG	4.031	1.685	0.682	CG	1	GPH	0
738	CG	3.962	1.806	0.682	CG	1	GPH	0
739	CG	4.031	1.926	0.682	CG	1	GPH	0
740	CG	3.962	2.046	0.682	CG	1	GPH	0
741	CG	4.031	2.167	0.682	CG	1	GPH	0
742	CG	3.962	2.287	0.682	CG	1	GPH	0
743	CG	4.031	2.408	0.682	CG	1	GPH	0
744	CG	3.962	2.528	0.682	CG	1	GPH	0
745	CG	4.031	2.648	0.682	CG	1	GPH	0
746	CG	3.962	2.769	0.682	CG	1	GPH	0
747	CHF	4.031	2.889	0.741	CHF	1	GPH	0
748	CG	3.962	3.009	0.682	CG	1	GPH	0
749	CG	4.031	3.13	0.682	CG	1	GPH	0
750	CG	3.962	3.25	0.682	CG	1	GPH	0
751	CG	4.031	3.371	0.682	CG	1	GPH	0
752	CG	3.962	3.491	0.682	CG	1	GPH	0
753	CG	4.031	3.611	0.682	CG	1	GPH	0
754	CG	3.962	3.732	0.682	CG	1	GPH	0
755	CG	4.031	3.852	0.682	CG	1	GPH	0
756	CG	3.962	3.972	0.682	CG	1	GPH	0
757	CG	4.031	4.093	0.682	CG	1	GPH	0
758	CG	3.962	4.213	0.682	CG	1	GPH	0
759	CG	4.031	4.334	0.682	CG	1	GPH	0
760	CG	3.962	4.454	0.682	CG	1	GPH	0
761	CG	4.17	0	0.682	CG	1	GPH	0
762	CG	4.24	0.12	0.682	CG	1	GPH	0
763	CG	4.17	0.241	0.682	CG	1	GPH	0
764	CG	4.24	0.361	0.682	CG	1	GPH	0
765	CG	4.17	0.482	0.682	CG	1	GPH	0
766	CG	4.24	0.602	0.682	CG	1	GPH	0
767	CG	4.17	0.722	0.682	CG	1	GPH	0
768	CG	4.24	0.843	0.682	CG	1	GPH	0
769	CG	4.17	0.963	0.682	CG	1	GPH	0
770	CG	4.24	1.083	0.682	CG	1	GPH	0
771	CHF	4.17	1.204	0.623	CHF	1	GPH	0
772	CG	4.24	1.324	0.682	CG	1	GPH	0
773	CG	4.17	1.445	0.682	CG	1	GPH	0
774	CG	4.24	1.565	0.682	CG	1	GPH	0
775	CG	4.17	1.685	0.682	CG	1	GPH	0
776	CG	4.24	1.806	0.682	CG	1	GPH	0
777	CG	4.17	1.926	0.682	CG	1	GPH	0
778	CG	4.24	2.046	0.682	CG	1	GPH	0
779	CG	4.17	2.167	0.682	CG	1	GPH	0
780	CG	4.24	2.287	0.682	CG	1	GPH	0
781	CG	4.17	2.408	0.682	CG	1	GPH	0
782	CHF	4.24	2.528	0.623	CHF	1	GPH	0
783	CG	4.17	2.648	0.682	CG	1	GPH	0
784	CG	4.24	2.769	0.682	CG	1	GPH	0
785	CG	4.17	2.889	0.682	CG	1	GPH	0
786	CG	4.24	3.009	0.682	CG	1	GPH	0
787	CG	4.17	3.13	0.682	CG	1	GPH	0
788	CG	4.24	3.25	0.682	CG	1	GPH	0
789	CG	4.17	3.371	0.682	CG	1	GPH	0
790	CG	4.24	3.491	0.682	CG	1	GPH	0
791	CG	4.17	3.611	0.682	CG	1	GPH	0
792	CG	4.24	3.732	0.682	CG	1	GPH	0
793	CG	4.17	3.852	0.682	CG	1	GPH	0
794	CG	4.24	3.972	0.682	CG	1	GPH	0
795	CG	4.17	4.093	0.682	CG	1	GPH	0
796	CG	4.24	4.213	0.682	CG	1	GPH	0
797	CG	4.17	4.334	0.682	CG	1	GPH	0
798	CG	4.24	4.454	0.682	CG	1	GPH	0
799	CG	4.448	0	0.682	CG	1	GPH	0
800	CG	4.379	0.12	0.682	CG	1	GPH	0
801	CG	4.448	0.241	0.682	CG	1	GPH	0
802	CG	4.379	0.361	0.682	CG	1	GPH	0
803	CG	4.448	0.482	0.682	CG	1	GPH	0
804	CG	4.379	0.602	0.682	CG	1	GPH	0
805	CG	4.448	0.722	0.682	CG	1	GPH	0
806	CG	4.379	0.843	0.682	CG	1	GPH	0
807	CHF	4.448	0.963	0.741	CHF	1	GPH	0
808	CG	4.379	1.083	0.682	CG	1	GPH	0
809	CG	4.448	1.204	0.682	CG	1	GPH	0
810	CG	4.379	1.324	0.682	CG	1	GPH	0
811	CG	4.448	1.445	0.682	CG	1	GPH	0
812	CG	4.379	1.565	0.682	CG	1	GPH	0
813	CG	4.448	1.685	0.682	CG	1	GPH	0
814	CG	4.379	1.806	0.682	CG	1	GPH	0
815	CG	4.448	1.926	0.682	CG	1	GPH	0
816	CG	4.379	2.046	0.682	CG	1	GPH	0
817	CG	4.448	2.167	0.682	CG	1	GPH	0
818	CG	4.379	2.287	0.682	CG	1	GPH	0
819	CG	4.448	2.408	0.682	CG	1	GPH	0
820	CG	4.379	2.528	0.682	CG	1	GPH	0
821	CG	4.448	2.648	0.682	CG	1	GPH	0
822	CG	4.379	2.769	0.682	CG	1	GPH	0
823	CG	4.448	2.889	0.682	CG	1	GPH	0
824	CG	4.379	3.009	0.682	CG	1	GPH	0
825	CG	4.448	3.13	0.682	CG	1	GPH	0
826	CG	4.379	3.25	0.682	CG	1	GPH	0
827	CG	4.448	3.371	0.682	CG	1	GPH	0
828	CG	4.379	3.491	0.682	CG	1	GPH	0
829	CG	4.448	3.611	0.682	CG	1	GPH	0
830	CG	4.379	3.732	0.682	CG	1	GPH	0
831	CHF	4.448	3.852	0.741	CHF	1	GPH	0
832	CG	4.379	3.972	0.682	CG	1	GPH	0
833	CG	4.448	4.093	0.682	CG	1	GPH	0
834	CG	4.379	4.213	0.682	CG	1	GPH	0
835	CG	4.448	4.334	0.682	CG	1	GPH	0
836	CG	4.379	4.454	0.682	CG	1	GPH	0
837	HG	0.07	0.12	0.851	HG	1	GPH	0
838	HG	0	3.13	0.851	HG	1	GPH	0
839	HG	0.278	1.445	0.513	HG	1	GPH	0
840	HG	0.209	2.769	0.513	HG	1	GPH	0
841	HG	0.417	1.204	0.851	HG	1	GPH	0
842	HG	0.417	4.093	0.851	HG	1	GPH	0
843	HG	0.626	0.843	0.513	HG	1	GPH	0
844	HG	0.695	3.852	0.513	HG	1	GPH	0
845	HG	0.834	2.167	0.851	HG	1	GPH	0
846	HG	0.904	3.491	0.851	HG	1	GPH	0
847	HG	1.112	1.926	0.513	HG	1	GPH	0
848	HG	1.251	0.241	0.513	HG	1	GPH	0
849	HG	1.321	1.565	0.851	HG	1	GPH	0
850	HG	1.529	0	0.851	HG	1	GPH	0
851	HG	1.529	2.889	0.513	HG	1	GPH	0
852	HG	1.46	4.213	0.513	HG	1	GPH	0
853	HG	1.668	2.648	0.851	HG	1	GPH	0
854	HG	1.946	0.963	0.851	HG	1	GPH	0
855	HG	1.877	2.287	0.513	HG	1	GPH	0
856	HG	2.085	0.722	0.513	HG	1	GPH	0
857	HG	2.085	3.611	0.851	HG	1	GPH	0
858	HG	2.294	0.361	0.851	HG	1	GPH	0
859	HG	2.363	3.371	0.513	HG	1	GPH	0
860	HG	2.502	1.685	0.513	HG	1	GPH	0
861	HG	2.572	3.009	0.851	HG	1	GPH	0
862	HG	2.78	1.445	0.851	HG	1	GPH	0
863	HG	2.78	4.334	0.513	HG	1	GPH	0
864	HG	2.989	1.083	0.513	HG	1	GPH	0
865	HG	2.919	4.093	0.851	HG	1	GPH	0
866	HG	3.197	2.408	0.851	HG	1	GPH	0
867	HG	3.128	3.732	0.513	HG	1	GPH	0
868	HG	3.336	2.167	0.513	HG	1	GPH	0
869	HG	3.614	0.482	0.851	HG	1	GPH	0
870	HG	3.545	1.806	0.851	HG	1	GPH	0
871	HG	3.753	0.241	0.513	HG	1	GPH	0
872	HG	3.753	3.13	0.513	HG	1	GPH	0
873	HG	3.823	4.454	0.851	HG	1	GPH	0
874	HG	4.031	2.889	0.851	HG	1	GPH	0
875	HG	4.17	1.204	0.513	HG	1	GPH	0
876	HG	4.24	2.528	0.513	HG	1	GPH	0
877	HG	4.448	0.963	0.851	HG	1	GPH	0
878	HG	4.448	3.852	0.851	HG	1	GPH	0
@<TRIPOS>BOND
1	1	799	1
2	1	2	1
3	1	38	1
4	3	801	1
5	3	4	1
6	3	2	1
7	5	803	1
8	5	6	1
9	5	4	1
10	7	805	1
11	7	8	1
12	7	6	1
13	9	807	1
14	9	10	1
15	9	8	1
16	11	809	1
17	11	12	1
18	11	10	1
19	13	811	1
20	13	14	1
21	13	12	1
22	15	813	1
23	15	16	1
24	15	14	1
25	17	815	1
26	17	18	1
27	17	16	1
28	19	817	1
29	19	20	1
30	19	18	1
31	21	819	1
32	21	22	1
33	21	20	1
34	23	821	1
35	23	24	1
36	23	22	1
37	25	823	1
38	25	26	1
39	25	24	1
40	27	825	1
41	27	28	1
42	27	26	1
43	29	827	1
44	29	30	1
45	29	28	1
46	31	829	1
47	31	32	1
48	31	30	1
49	33	831	1
50	33	34	1
51	33	32	1
52	35	833	1
53	35	36	1
54	35	34	1
55	37	835	1
56	37	38	1
57	37	36	1
58	40	2	1
59	40	41	1
60	40	39	1
61	42	4	1
62	42	43	1
63	42	41	1
64	44	6	1
65	44	45	1
66	44	43	1
67	46	8	1
68	46	47	1
69	46	45	1
70	48	10	1
71	48	49	1
72	48	47	1
73	50	12	1
74	50	51	1
75	50	49	1
76	52	14	1
77	52	53	1
78	52	51	1
79	54	16	1
80	54	55	1
81	54	53	1
82	56	18	1
83	56	57	1
84	56	55	1
85	58	20	1
86	58	59	1
87	58	57	1
88	60	22	1
89	60	61	1
90	60	59	1
91	62	24	1
92	62	63	1
93	62	61	1
94	64	26	1
95	64	65	1
96	64	63	1
97	66	28	1
98	66	67	1
99	66	65	1
100	68	30	1
101	68	69	1
102	68	67	1
103	70	32	1
104	70	71	1
105	70	69	1
106	72	34	1
107	72	73	1
108	72	71	1
109	74	36	1
110	74	75	1
111	74	73	1
112	76	38	1
113	76	39	1
114	76	75	1
115	77	39	1
116	77	78	1
117	77	114	1
118	79	41	1
119	79	80	1
120	79	78	1
121	81	43	1
122	81	82	1
123	81	80	1
124	83	45	1
125	83	84	1
126	83	82	1
127	85	47	1
128	85	86	1
129	85	84	1
130	87	49	1
131	87	88	1
132	87	86	1
133	89	51	1
134	89	90	1
135	89	88	1
136	91	53	1
137	91	92	1
138	91	90	1
139	93	55	1
140	93	94	1
141	93	92	1
142	95	57	1
143	95	96	1
144	95	94	1
145	97	59	1
146	97	98	1
147	97	96	1
148	99	61	1
149	99	100	1
150	99	98	1
151	101	63	1
152	101	102	1
153	101	100	1
154	103	65	1
155	103	104	1
156	103	102	1
157	105	67	1
158	105	106	1
159	105	104	1
160	107	69	1
161	107	108	1
162	107	106	1
163	109	71	1
164	109	110	1
165	109	108	1
166	111	73	1
167	111	112	1
168	111	110	1
169	113	75	1
170	113	114	1
171	113	112	1
172	116	78	1
173	116	117	1
174	116	115	1
175	118	80	1
176	118	119	1
177	118	117	1
178	120	82	1
179	120	121	1
180	120	119	1
181	122	84	1
182	122	123	1
183	122	121	1
184	124	86	1
185	124	125	1
186	124	123	1
187	126	88	1
188	126	127	1
189	126	125	1
190	128	90	1
191	128	129	1
192	128	127	1
193	130	92	1
194	130	131	1
195	130	129	1
196	132	94	1
197	132	133	1
198	132	131	1
199	134	96	1
200	134	135	1
201	134	133	1
202	136	98	1
203	136	137	1
204	136	135	1
205	138	100	1
206	138	139	1
207	138	137	1
208	140	102	1
209	140	141	1
210	140	139	1
211	142	104	1
212	142	143	1
213	142	141	1
214	144	106	1
215	144	145	1
216	144	143	1
217	146	108	1
218	146	147	1
219	146	145	1
220	148	110	1
221	148	149	1
222	148	147	1
223	150	112	1
224	150	151	1
225	150	149	1
226	152	114	1
227	152	115	1
228	152	151	1
229	153	115	1
230	153	154	1
231	153	190	1
232	155	117	1
233	155	156	1
234	155	154	1
235	157	119	1
236	157	158	1
237	157	156	1
238	159	121	1
239	159	160	1
240	159	158	1
241	161	123	1
242	161	162	1
243	161	160	1
244	163	125	1
245	163	164	1
246	163	162	1
247	165	127	1
248	165	166	1
249	165	164	1
250	167	129	1
251	167	168	1
252	167	166	1
253	169	131	1
254	169	170	1
255	169	168	1
256	171	133	1
257	171	172	1
258	171	170	1
259	173	135	1
260	173	174	1
261	173	172	1
262	175	137	1
263	175	176	1
264	175	174	1
265	177	139	1
266	177	178	1
267	177	176	1
268	179	141	1
269	179	180	1
270	179	178	1
271	181	143	1
272	181	182	1
273	181	180	1
274	183	145	1
275	183	184	1
276	183	182	1
277	185	147	1
278	185	186	1
279	185	184	1
280	187	149	1
281	187	188	1
282	187	186	1
283	189	151	1
284	189	190	1
285	189	188	1
286	192	154	1
287	192	193	1
288	192	191	1
289	194	156	1
290	194	195	1
291	194	193	1
292	196	158	1
293	196	197	1
294	196	195	1
295	198	160	1
296	198	199	1
297	198	197	1
298	200	162	1
299	200	201	1
300	200	199	1
301	202	164	1
302	202	203	1
303	202	201	1
304	204	166	1
305	204	205	1
306	204	203	1
307	206	168	1
308	206	207	1
309	206	205	1
310	208	170	1
311	208	209	1
312	208	207	1
313	210	172	1
314	210	211	1
315	210	209	1
316	212	174	1
317	212	213	1
318	212	211	1
319	214	176	1
320	214	215	1
321	214	213	1
322	216	178	1
323	216	217	1
324	216	215	1
325	218	180	1
326	218	219	1
327	218	217	1
328	220	182	1
329	220	221	1
330	220	219	1
331	222	184	1
332	222	223	1
333	222	221	1
334	224	186	1
335	224	225	1
336	224	223	1
337	226	188	1
338	226	227	1
339	226	225	1
340	228	190	1
341	228	191	1
342	228	227	1
343	229	191	1
344	229	230	1
345	229	266	1
346	231	193	1
347	231	232	1
348	231	230	1
349	233	195	1
350	233	234	1
351	233	232	1
352	235	197	1
353	235	236	1
354	235	234	1
355	237	199	1
356	237	238	1
357	237	236	1
358	239	201	1
359	239	240	1
360	239	238	1
361	241	203	1
362	241	242	1
363	241	240	1
364	243	205	1
365	243	244	1
366	243	242	1
367	245	207	1
368	245	246	1
369	245	244	1
370	247	209	1
371	247	248	1
372	247	246	1
373	249	211	1
374	249	250	1
375	249	248	1
376	251	213	1
377	251	252	1
378	251	250	1
379	253	215	1
380	253	254	1
381	253	252	1
382	255	217	1
383	255	256	1
384	255	254	1
385	257	219	1
386	257	258	1
387	257	256	1
388	259	221	1
389	259	260	1
390	259	258	1
391	261	223	1
392	261	262	1
393	261	260	1
394	263	225	1
395	263	264	1
396	263	262	1
397	265	227	1
398	265	266	1
399	265	264	1
400	268	230	1
401	268	269	1
402	268	267	1
403	270	232	1
404	270	271	1
405	270	269	1
406	272	234	1
407	272	273	1
408	272	271	1
409	274	236	1
410	274	275	1
411	274	273	1
412	276	238	1
413	276	277	1
414	276	275	1
415	278	240	1
416	278	279	1
417	278	277	1
418	280	242	1
419	280	281	1
420	280	279	1
421	282	244	1
422	282	283	1
423	282	281	1
424	284	246	1
425	284	285	1
426	284	283	1
427	286	248	1
428	286	287	1
429	286	285	1
430	288	250	1
431	288	289	1
432	288	287	1
433	290	252	1
434	290	291	1
435	290	289	1
436	292	254	1
437	292	293	1
438	292	291	1
439	294	256	1
440	294	295	1
441	294	293	1
442	296	258	1
443	296	297	1
444	296	295	1
445	298	260	1
446	298	299	1
447	298	297	1
448	300	262	1
449	300	301	1
450	300	299	1
451	302	264	1
452	302	303	1
453	302	301	1
454	304	266	1
455	304	267	1
456	304	303	1
457	305	267	1
458	305	306	1
459	305	342	1
460	307	269	1
461	307	308	1
462	307	306	1
463	309	271	1
464	309	310	1
465	309	308	1
466	311	273	1
467	311	312	1
468	311	310	1
469	313	275	1
470	313	314	1
471	313	312	1
472	315	277	1
473	315	316	1
474	315	314	1
475	317	279	1
476	317	318	1
477	317	316	1
478	319	281	1
479	319	320	1
480	319	318	1
481	321	283	1
482	321	322	1
483	321	320	1
484	323	285	1
485	323	324	1
486	323	322	1
487	325	287	1
488	325	326	1
489	325	324	1
490	327	289	1
491	327	328	1
492	327	326	1
493	329	291	1
494	329	330	1
495	329	328	1
496	331	293	1
497	331	332	1
498	331	330	1
499	333	295	1
500	333	334	1
501	333	332	1
502	335	297	1
503	335	336	1
504	335	334	1
505	337	299	1
506	337	338	1
507	337	336	1
508	339	301	1
509	339	340	1
510	339	338	1
511	341	303	1
512	341	342	1
513	341	340	1
514	344	306	1
515	344	345	1
516	344	343	1
517	346	308	1
518	346	347	1
519	346	345	1
520	348	310	1
521	348	349	1
522	348	347	1
523	350	312	1
524	350	351	1
525	350	349	1
526	352	314	1
527	352	353	1
528	352	351	1
529	354	316	1
530	354	355	1
531	354	353	1
532	356	318	1
533	356	357	1
534	356	355	1
535	358	320	1
536	358	359	1
537	358	357	1
538	360	322	1
539	360	361	1
540	360	359	1
541	362	324	1
542	362	363	1
543	362	361	1
544	364	326	1
545	364	365	1
546	364	363	1
547	366	328	1
548	366	367	1
549	366	365	1
550	368	330	1
551	368	369	1
552	368	367	1
553	370	332	1
554	370	371	1
555	370	369	1
556	372	334	1
557	372	373	1
558	372	371	1
559	374	336	1
560	374	375	1
561	374	373	1
562	376	338	1
563	376	377	1
564	376	375	1
565	378	340	1
566	378	379	1
567	378	377	1
568	380	342	1
569	380	343	1
570	380	379	1
571	381	343	1
572	381	382	1
573	381	418	1
574	383	345	1
575	383	384	1
576	383	382	1
577	385	347	1
578	385	386	1
579	385	384	1
580	387	349	1
581	387	388	1
582	387	386	1
583	389	351	1
584	389	390	1
585	389	388	1
586	391	353	1
587	391	392	1
588	391	390	1
589	393	355	1
590	393	394	1
591	393	392	1
592	395	357	1
593	395	396	1
594	395	394	1
595	397	359	1
596	397	398	1
597	397	396	1
598	399	361	1
599	399	400	1
600	399	398	1
601	401	363	1
602	401	402	1
603	401	400	1
604	403	365	1
605	403	404	1
606	403	402	1
607	405	367	1
608	405	406	1
609	405	404	1
610	407	369	1
611	407	408	1
612	407	406	1
613	409	371	1
614	409	410	1
615	409	408	1
616	411	373	1
617	411	412	1
618	411	410	1
619	413	375	1
620	413	414	1
621	413	412	1
622	415	377	1
623	415	416	1
624	415	414	1
625	417	379	1
626	417	418	1
627	417	416	1
628	420	382	1
629	420	421	1
630	420	419	1
631	422	384	1
632	422	423	1
633	422	421	1
634	424	386	1
635	424	425	1
636	424	423	1
637	426	388	1
638	426	427	1
639	426	425	1
640	428	390	1
641	428	429	1
642	428	427	1
643	430	392	1
644	430	431	1
645	430	429	1
646	432	394	1
647	432	433	1
648	432	431	1
649	434	396	1
650	434	435	1
651	434	433	1
652	436	398	1
653	436	437	1
654	436	435	1
655	438	400	1
656	438	439	1
657	438	437	1
658	440	402	1
659	440	441	1
660	440	439	1
661	442	404	1
662	442	443	1
663	442	441	1
664	444	406	1
665	444	445	1
666	444	443	1
667	446	408	1
668	446	447	1
669	446	445	1
670	448	410	1
671	448	449	1
672	448	447	1
673	450	412	1
674	450	451	1
675	450	449	1
676	452	414	1
677	452	453	1
678	452	451	1
679	454	416	1
680	454	455	1
681	454	453	1
682	456	418	1
683	456	419	1
684	456	455	1
685	457	419	1
686	457	458	1
687	457	494	1
688	459	421	1
689	459	460	1
690	459	458	1
691	461	423	1
692	461	462	1
693	461	460	1
694	463	425	1
695	463	464	1
696	463	462	1
697	465	427	1
698	465	466	1
699	465	464	1
700	467	429	1
701	467	468	1
702	467	466	1
703	469	431	1
704	469	470	1
705	469	468	1
706	471	433	1
707	471	472	1
708	471	470	1
709	473	435	1
710	473	474	1
711	473	472	1
712	475	437	1
713	475	476	1
714	475	474	1
715	477	439	1
716	477	478	1
717	477	476	1
718	479	441	1
719	479	480	1
720	479	478	1
721	481	443	1
722	481	482	1
723	481	480	1
724	483	445	1
725	483	484	1
726	483	482	1
727	485	447	1
728	485	486	1
729	485	484	1
730	487	449	1
731	487	488	1
732	487	486	1
733	489	451	1
734	489	490	1
735	489	488	1
736	491	453	1
737	491	492	1
738	491	490	1
739	493	455	1
740	493	494	1
741	493	492	1
742	496	458	1
743	496	497	1
744	496	495	1
745	498	460	1
746	498	499	1
747	498	497	1
748	500	462	1
749	500	501	1
750	500	499	1
751	502	464	1
752	502	503	1
753	502	501	1
754	504	466	1
755	504	505	1
756	504	503	1
757	506	468	1
758	506	507	1
759	506	505	1
760	508	470	1
761	508	509	1
762	508	507	1
763	510	472	1
764	510	511	1
765	510	509	1
766	512	474	1
767	512	513	1
768	512	511	1
769	514	476	1
770	514	515	1
771	514	513	1
772	516	478	1
773	516	517	1
774	516	515	1
775	518	480	1
776	518	519	1
777	518	517	1
778	520	482	1
779	520	521	1
780	520	519	1
781	522	484	1
782	522	523	1
783	522	521	1
784	524	486	1
785	524	525	1
786	524	523	1
787	526	488	1
788	526	527	1
789	526	525	1
790	528	490	1
791	528	529	1
792	528	527	1
793	530	492	1
794	530	531	1
795	530	529	1
796	532	494	1
797	532	495	1
798	532	531	1
799	533	495	1
800	533	534	1
801	533	570	1
802	535	497	1
803	535	536	1
804	535	534	1
805	537	499	1
806	537	538	1
807	537	536	1
808	539	501	1
809	539	540	1
810	539	538	1
811	541	503	1
812	541	542	1
813	541	540	1
814	543	505	1
815	543	544	1
816	543	542	1
817	545	507	1
818	545	546	1
819	545	544	1
820	547	509	1
821	547	548	1
822	547	546	1
823	549	511	1
824	549	550	1
825	549	548	1
826	551	513	1
827	551	552	1
828	551	550	1
829	553	515	1
830	553	554	1
831	553	552	1
832	555	517	1
833	555	556	1
834	555	554	1
835	557	519	1
836	557	558	1
837	557	556	1
838	559	521	1
839	559	560	1
840	559	558	1
841	561	523	1
842	561	562	1
843	561	560	1
844	563	525	1
845	563	564	1
846	563	562	1
847	565	527	1
848	565	566	1
849	565	564	1
850	567	529	1
851	567	568	1
852	567	566	1
853	569	531	1
854	569	570	1
855	569	568	1
856	572	534	1
857	572	573	1
858	572	571	1
859	574	536	1
860	574	575	1
861	574	573	1
862	576	538	1
863	576	577	1
864	576	575	1
865	578	540	1
866	578	579	1
867	578	577	1
868	580	542	1
869	580	581	1
870	580	579	1
871	582	544	1
872	582	583	1
873	582	581	1
874	584	546	1
875	584	585	1
876	584	583	1
877	586	548	1
878	586	587	1
879	586	585	1
880	588	550	1
881	588	589	1
882	588	587	1
883	590	552	1
884	590	591	1
885	590	589	1
886	592	554	1
887	592	593	1
888	592	591	1
889	594	556	1
890	594	595	1
891	594	593	1
892	596	558	1
893	596	597	1
894	596	595	1
895	598	560	1
896	598	599	1
897	598	597	1
898	600	562	1
899	600	601	1
900	600	599	1
901	602	564	1
902	602	603	1
903	602	601	1
904	604	566	1
905	604	605	1
906	604	603	1
907	606	568	1
908	606	607	1
909	606	605	1
910	608	570	1
911	608	571	1
912	608	607	1
913	609	571	1
914	609	610	1
915	609	646	1
916	611	573	1
917	611	612	1
918	611	610	1
919	613	575	1
920	613	614	1
921	613	612	1
922	615	577	1
923	615	616	1
924	615	614	1
925	617	579	1
926	617	618	1
927	617	616	1
928	619	581	1
929	619	620	1
930	619	618	1
931	621	583	1
932	621	622	1
933	621	620	1
934	623	585	1
935	623	624	1
936	623	622	1
937	625	587	1
938	625	626	1
939	625	624	1
940	627	589	1
941	627	628	1
942	627	626	1
943	629	591	1
944	629	630	1
945	629	628	1
946	631	593	1
947	631	632	1
948	631	630	1
949	633	595	1
950	633	634	1
951	633	632	1
952	635	597	1
953	635	636	1
954	635	634	1
955	637	599	1
956	637	638	1
957	637	636	1
958	639	601	1
959	639	640	1
960	639	638	1
961	641	603	1
962	641	642	1
963	641	640	1
964	643	605	1
965	643	644	1
966	643	642	1
967	645	607	1
968	645	646	1
969	645	644	1
970	648	610	1
971	648	649	1
972	648	647	1
973	650	612	1
974	650	651	1
975	650	649	1
976	652	614	1
977	652	653	1
978	652	651	1
979	654	616	1
980	654	655	1
981	654	653	1
982	656	618	1
983	656	657	1
984	656	655	1
985	658	620	1
986	658	659	1
987	658	657	1
988	660	622	1
989	660	661	1
990	660	659	1
991	662	624	1
992	662	663	1
993	662	661	1
994	664	626	1
995	664	665	1
996	664	663	1
997	666	628	1
998	666	667	1
999	666	665	1
1000	668	630	1
1001	668	669	1
1002	668	667	1
1003	670	632	1
1004	670	671	1
1005	670	669	1
1006	672	634	1
1007	672	673	1
1008	672	671	1
1009	674	636	1
1010	674	675	1
1011	674	673	1
1012	676	638	1
1013	676	677	1
1014	676	675	1
1015	678	640	1
1016	678	679	1
1017	678	677	1
1018	680	642	1
1019	680	681	1
1020	680	679	1
1021	682	644	1
1022	682	683	1
1023	682	681	1
1024	684	646	1
1025	684	647	1
1026	684	683	1
1027	685	647	1
1028	685	686	1
1029	685	722	1
1030	687	649	1
1031	687	688	1
1032	687	686	1
1033	689	651	1
1034	689	690	1
1035	689	688	1
1036	691	653	1
1037	691	692	1
1038	691	690	1
1039	693	655	1
1040	693	694	1
1041	693	692	1
1042	695	657	1
1043	695	696	1
1044	695	694	1
1045	697	659	1
1046	697	698	1
1047	697	696	1
1048	699	661	1
1049	699	700	1
1050	699	698	1
1051	701	663	1
1052	701	702	1
1053	701	700	1
1054	703	665	1
1055	703	704	1
1056	703	702	1
1057	705	667	1
1058	705	706	1
1059	705	704	1
1060	707	669	1
1061	707	708	1
1062	707	706	1
1063	709	671	1
1064	709	710	1
1065	709	708	1
1066	711	673	1
1067	711	712	1
1068	711	710	1
1069	713	675	1
1070	713	714	1
1071	713	712	1
1072	715	677	1
1073	715	716	1
1074	715	714	1
1075	717	679	1
1076	717	718	1
1077	717	716	1
1078	719	681	1
1079	719	720	1
1080	719	718	1
1081	721	683	1
1082	721	722	1
1083	721	720	1
1084	724	686	1
1085	724	725	1
1086	724	723	1
1087	726	688	1
1088	726	727	1
1089	726	725	1
1090	728	690	1
1091	728	729	1
1092	728	727	1
1093	730	692	1
1094	730	731	1
1095	730	729	1
1096	732	694	1
1097	732	733	1
1098	732	731	1
1099	734	696	1
1100	734	735	1
1101	734	733	1
1102	736	698	1
1103	736	737	1
1104	736	735	1
1105	738	700	1
1106	738	739	1
1107	738	737	1
1108	740	702	1
1109	740	741	1
1110	740	739	1
1111	742	704	1
1112	742	743	1
1113	742	741	1
1114	744	706	1
1115	744	745	1
1116	744	743	1
1117	746	708	1
1118	746	747	1
1119	746	745	1
1120	748	710	1
1121	748	749	1
1122	748	747	1
1123	750	712	1
1124	750	751	1
1125	750	749	1
1126	752	714	1
1127	752	753	1
1128	752	751	1
1129	754	716	1
1130	754	755	1
1131	754	753	1
1132	756	718	1
1133	756	757	1
1134	756	755	1
1135	758	720	1
1136	758	759	1
1137	758	757	1
1138	760	722	1
1139	760	723	1
1140	760	759	1
1141	761	723	1
1142	761	762	1
1143	761	798	1
1144	763	725	1
1145	763	764	1
1146	763	762	1
1147	765	727	1
1148	765	766	1
1149	765	764	1
1150	767	729	1
1151	767	768	1
1152	767	766	1
1153	769	731	1
1154	769	770	1
1155	769	768	1
1156	771	733	1
1157	771	772	1
1158	771	770	1
1159	773	735	1
1160	773	774	1
1161	773	772	1
1162	775	737	1
1163	775	776	1
1164	775	774	1
1165	777	739	1
1166	777	778	1
1167	777	776	1
1168	779	741	1
1169	779	780	1
1170	779	778	1
1171	781	743	1
1172	781	782	1
1173	781	780	1
1174	783	745	1
1175	783	784	1
1176	783	782	1
1177	785	747	1
1178	785	786	1
1179	785	784	1
1180	787	749	1
1181	787	788	1
1182	787	786	1
1183	789	751	1
1184	789	790	1
1185	789	788	1
1186	791	753	1
1187	791	792	1
1188	791	790	1
1189	793	755	1
1190	793	794	1
1191	793	792	1
1192	795	757	1
1193	795	796	1
1194	795	794	1
1195	797	759	1
1196	797	798	1
1197	797	796	1
1198	800	762	1
1199	800	801	1
1200	800	799	1
1201	802	764	1
1202	802	803	1
1203	802	801	1
1204	804	766	1
1205	804	805	1
1206	804	803	1
1207	806	768	1
1208	806	807	1
1209	806	805	1
1210	808	770	1
1211	808	809	1
1212	808	807	1
1213	810	772	1
1214	810	811	1
1215	810	809	1
1216	812	774	1
1217	812	813	1
1218	812	811	1
1219	814	776	1
1220	814	815	1
1221	814	813	1
1222	816	778	1
1223	816	817	1
1224	816	815	1
1225	818	780	1
1226	818	819	1
1227	818	817	1
1228	820	782	1
1229	820	821	1
1230	820	819	1
1231	822	784	1
1232	822	823	1
1233	822	821	1
1234	824	786	1
1235	824	825	1
1236	824	823	1
1237	826	788	1
1238	826	827	1
1239	826	825	1
1240	828	790	1
1241	828	829	1
1242	828	827	1
1243	830	792	1
1244	830	831	1
1245	830	829	1
1246	832	794	1
1247	832	833	1
1248	832	831	1
1249	834	796	1
1250	834	835	1
1251	834	833	1
1252	836	798	1
1253	836	799	1
1254	836	835	1
1255	2	837	1
1256	27	838	1
1257	51	839	1
1258	62	840	1
1259	87	841	1
1260	111	842	1
1261	122	843	1
1262	147	844	1
1263	171	845	1
1264	182	846	1
1265	207	847	1
1266	231	848	1
1267	242	849	1
1268	267	850	1
1269	291	851	1
1270	302	852	1
1271	327	853	1
1272	351	854	1
1273	362	855	1
1274	387	856	1
1275	411	857	1
1276	422	858	1
1277	447	859	1
1278	471	860	1
1279	482	861	1
1280	507	862	1
1281	531	863	1
1282	542	864	1
1283	567	865	1
1284	591	866	1
1285	602	867	1
1286	627	868	1
1287	651	869	1
1288	662	870	1
1289	687	871	1
1290	711	872	1
1291	722	873	1
1292	747	874	1
1293	771	875	1
1294	782	876	1
1295	807	877	1
1296	831	878	1
